AMOSTRA/GOI/_ATERRAMENTO.dss
! Aterramento do neutro (no 4) dos secundarios de BT
! Reactor de 0.5 ohm entre o no 4 e a terra (no 0).
New Reactor.NEUTRO_2395622-8840153 phases=1 bus1=2395622-8840153.4 bus2=2395622-8840153.0 R=0.5 X=0
New Reactor.NEUTRO_2395623-8841230 phases=1 bus1=2395623-8841230.4 bus2=2395623-8841230.0 R=0.5 X=0
New Reactor.NEUTRO_2395624-8840887 phases=1 bus1=2395624-8840887.4 bus2=2395624-8840887.0 R=0.5 X=0
New Reactor.NEUTRO_2395625-8840477 phases=1 bus1=2395625-8840477.4 bus2=2395625-8840477.0 R=0.5 X=0
New Reactor.NEUTRO_2395626-8841173v phases=1 bus1=2395626-8841173v.4 bus2=2395626-8841173v.0 R=0.5 X=0
New Reactor.NEUTRO_2395627-8840592 phases=1 bus1=2395627-8840592.4 bus2=2395627-8840592.0 R=0.5 X=0
New Reactor.NEUTRO_2395628-8840158 phases=1 bus1=2395628-8840158.4 bus2=2395628-8840158.0 R=0.5 X=0
New Reactor.NEUTRO_2395629-8840908 phases=1 bus1=2395629-8840908.4 bus2=2395629-8840908.0 R=0.5 X=0
New Reactor.NEUTRO_2395630-8840995 phases=1 bus1=2395630-8840995.4 bus2=2395630-8840995.0 R=0.5 X=0
New Reactor.NEUTRO_2395631-8840757v phases=1 bus1=2395631-8840757v.4 bus2=2395631-8840757v.0 R=0.5 X=0
New Reactor.NEUTRO_2395639-8840324 phases=1 bus1=2395639-8840324.4 bus2=2395639-8840324.0 R=0.5 X=0
New Reactor.NEUTRO_2395640-8840156v phases=1 bus1=2395640-8840156v.4 bus2=2395640-8840156v.0 R=0.5 X=0
New Reactor.NEUTRO_2395641-8840493v phases=1 bus1=2395641-8840493v.4 bus2=2395641-8840493v.0 R=0.5 X=0
New Reactor.NEUTRO_2395642-8841334v phases=1 bus1=2395642-8841334v.4 bus2=2395642-8841334v.0 R=0.5 X=0
New Reactor.NEUTRO_2395643-8840499v phases=1 bus1=2395643-8840499v.4 bus2=2395643-8840499v.0 R=0.5 X=0
New Reactor.NEUTRO_2395644-8840149 phases=1 bus1=2395644-8840149.4 bus2=2395644-8840149.0 R=0.5 X=0
New Reactor.NEUTRO_2395646-8840319v phases=1 bus1=2395646-8840319v.4 bus2=2395646-8840319v.0 R=0.5 X=0
New Reactor.NEUTRO_2395656-11671278 phases=1 bus1=2395656-11671278.4 bus2=2395656-11671278.0 R=0.5 X=0
New Reactor.NEUTRO_2395657-8840672 phases=1 bus1=2395657-8840672.4 bus2=2395657-8840672.0 R=0.5 X=0
New Reactor.NEUTRO_2395658-8841153 phases=1 bus1=2395658-8841153.4 bus2=2395658-8841153.0 R=0.5 X=0
New Reactor.NEUTRO_2395659-8841336v phases=1 bus1=2395659-8841336v.4 bus2=2395659-8841336v.0 R=0.5 X=0
New Reactor.NEUTRO_2395660-8840848v phases=1 bus1=2395660-8840848v.4 bus2=2395660-8840848v.0 R=0.5 X=0
New Reactor.NEUTRO_2395661-8841521 phases=1 bus1=2395661-8841521.4 bus2=2395661-8841521.0 R=0.5 X=0
New Reactor.NEUTRO_2395663-8840315v phases=1 bus1=2395663-8840315v.4 bus2=2395663-8840315v.0 R=0.5 X=0
New Reactor.NEUTRO_2395664-8840891v phases=1 bus1=2395664-8840891v.4 bus2=2395664-8840891v.0 R=0.5 X=0
New Reactor.NEUTRO_2395667-8840496v phases=1 bus1=2395667-8840496v.4 bus2=2395667-8840496v.0 R=0.5 X=0
New Reactor.NEUTRO_2395668-8841332v phases=1 bus1=2395668-8841332v.4 bus2=2395668-8841332v.0 R=0.5 X=0
New Reactor.NEUTRO_2395669-8840145 phases=1 bus1=2395669-8840145.4 bus2=2395669-8840145.0 R=0.5 X=0
New Reactor.NEUTRO_2395670-8841330v phases=1 bus1=2395670-8841330v.4 bus2=2395670-8841330v.0 R=0.5 X=0
New Reactor.NEUTRO_2395671-8841335v phases=1 bus1=2395671-8841335v.4 bus2=2395671-8841335v.0 R=0.5 X=0
New Reactor.NEUTRO_2395672-8840492 phases=1 bus1=2395672-8840492.4 bus2=2395672-8840492.0 R=0.5 X=0
New Reactor.NEUTRO_2395673-8841300v phases=1 bus1=2395673-8841300v.4 bus2=2395673-8841300v.0 R=0.5 X=0
New Reactor.NEUTRO_2395674-8841174v phases=1 bus1=2395674-8841174v.4 bus2=2395674-8841174v.0 R=0.5 X=0
New Reactor.NEUTRO_2395689-8840504v phases=1 bus1=2395689-8840504v.4 bus2=2395689-8840504v.0 R=0.5 X=0
New Reactor.NEUTRO_2395690-8841162 phases=1 bus1=2395690-8841162.4 bus2=2395690-8841162.0 R=0.5 X=0
New Reactor.NEUTRO_2395691-8841169 phases=1 bus1=2395691-8841169.4 bus2=2395691-8841169.0 R=0.5 X=0
New Reactor.NEUTRO_2395692-8840325v phases=1 bus1=2395692-8840325v.4 bus2=2395692-8840325v.0 R=0.5 X=0
New Reactor.NEUTRO_2395693-8840288 phases=1 bus1=2395693-8840288.4 bus2=2395693-8840288.0 R=0.5 X=0
New Reactor.NEUTRO_2395694-8840498 phases=1 bus1=2395694-8840498.4 bus2=2395694-8840498.0 R=0.5 X=0
New Reactor.NEUTRO_2395695-8841160 phases=1 bus1=2395695-8841160.4 bus2=2395695-8841160.0 R=0.5 X=0
New Reactor.NEUTRO_2395696-8840594 phases=1 bus1=2395696-8840594.4 bus2=2395696-8840594.0 R=0.5 X=0
New Reactor.NEUTRO_2395697-8840996v phases=1 bus1=2395697-8840996v.4 bus2=2395697-8840996v.0 R=0.5 X=0
New Reactor.NEUTRO_2395698-8841164v phases=1 bus1=2395698-8841164v.4 bus2=2395698-8841164v.0 R=0.5 X=0
New Reactor.NEUTRO_2395714-8841310v phases=1 bus1=2395714-8841310v.4 bus2=2395714-8841310v.0 R=0.5 X=0
New Reactor.NEUTRO_2395715-8841323v phases=1 bus1=2395715-8841323v.4 bus2=2395715-8841323v.0 R=0.5 X=0
New Reactor.NEUTRO_2395716-8840670 phases=1 bus1=2395716-8840670.4 bus2=2395716-8840670.0 R=0.5 X=0
New Reactor.NEUTRO_2395717-8840849v phases=1 bus1=2395717-8840849v.4 bus2=2395717-8840849v.0 R=0.5 X=0
New Reactor.NEUTRO_2395719-8840839v phases=1 bus1=2395719-8840839v.4 bus2=2395719-8840839v.0 R=0.5 X=0
New Reactor.NEUTRO_2395720-8841233 phases=1 bus1=2395720-8841233.4 bus2=2395720-8841233.0 R=0.5 X=0
New Reactor.NEUTRO_2395721-8840960v phases=1 bus1=2395721-8840960v.4 bus2=2395721-8840960v.0 R=0.5 X=0
New Reactor.NEUTRO_2395722-8841303v phases=1 bus1=2395722-8841303v.4 bus2=2395722-8841303v.0 R=0.5 X=0
New Reactor.NEUTRO_2395724-8841338 phases=1 bus1=2395724-8841338.4 bus2=2395724-8841338.0 R=0.5 X=0
New Reactor.NEUTRO_2395725-8840503v phases=1 bus1=2395725-8840503v.4 bus2=2395725-8840503v.0 R=0.5 X=0
New Reactor.NEUTRO_2395726-8841333v phases=1 bus1=2395726-8841333v.4 bus2=2395726-8841333v.0 R=0.5 X=0
New Reactor.NEUTRO_2395727-8841339v phases=1 bus1=2395727-8841339v.4 bus2=2395727-8841339v.0 R=0.5 X=0
New Reactor.NEUTRO_2395728-8840147 phases=1 bus1=2395728-8840147.4 bus2=2395728-8840147.0 R=0.5 X=0
New Reactor.NEUTRO_2395730-8841175v phases=1 bus1=2395730-8841175v.4 bus2=2395730-8841175v.0 R=0.5 X=0
New Reactor.NEUTRO_2395734-8841434 phases=1 bus1=2395734-8841434.4 bus2=2395734-8841434.0 R=0.5 X=0
New Reactor.NEUTRO_2395735-8841519 phases=1 bus1=2395735-8841519.4 bus2=2395735-8841519.0 R=0.5 X=0
New Reactor.NEUTRO_2395736-8840161v phases=1 bus1=2395736-8840161v.4 bus2=2395736-8840161v.0 R=0.5 X=0
New Reactor.NEUTRO_2395737-13197010v phases=1 bus1=2395737-13197010v.4 bus2=2395737-13197010v.0 R=0.5 X=0
New Reactor.NEUTRO_2395739-8840495v phases=1 bus1=2395739-8840495v.4 bus2=2395739-8840495v.0 R=0.5 X=0
New Reactor.NEUTRO_2395740-8840962 phases=1 bus1=2395740-8840962.4 bus2=2395740-8840962.0 R=0.5 X=0
New Reactor.NEUTRO_2395741-8840329v phases=1 bus1=2395741-8840329v.4 bus2=2395741-8840329v.0 R=0.5 X=0
New Reactor.NEUTRO_2395742-8841000v phases=1 bus1=2395742-8841000v.4 bus2=2395742-8841000v.0 R=0.5 X=0
New Reactor.NEUTRO_2395743-8840934v phases=1 bus1=2395743-8840934v.4 bus2=2395743-8840934v.0 R=0.5 X=0
New Reactor.NEUTRO_2395744-8840322v phases=1 bus1=2395744-8840322v.4 bus2=2395744-8840322v.0 R=0.5 X=0
New Reactor.NEUTRO_2395762-8840160 phases=1 bus1=2395762-8840160.4 bus2=2395762-8840160.0 R=0.5 X=0
New Reactor.NEUTRO_2395763-8841528v phases=1 bus1=2395763-8841528v.4 bus2=2395763-8841528v.0 R=0.5 X=0
New Reactor.NEUTRO_2395764-8840494v phases=1 bus1=2395764-8840494v.4 bus2=2395764-8840494v.0 R=0.5 X=0
New Reactor.NEUTRO_2395765-8841167 phases=1 bus1=2395765-8841167.4 bus2=2395765-8841167.0 R=0.5 X=0
New Reactor.NEUTRO_2395767-8840964 phases=1 bus1=2395767-8840964.4 bus2=2395767-8840964.0 R=0.5 X=0
New Reactor.NEUTRO_2395768-8840162v phases=1 bus1=2395768-8840162v.4 bus2=2395768-8840162v.0 R=0.5 X=0
New Reactor.NEUTRO_2395769-8840761v phases=1 bus1=2395769-8840761v.4 bus2=2395769-8840761v.0 R=0.5 X=0
New Reactor.NEUTRO_2395770-8840328 phases=1 bus1=2395770-8840328.4 bus2=2395770-8840328.0 R=0.5 X=0
New Reactor.NEUTRO_2395771-8840330v phases=1 bus1=2395771-8840330v.4 bus2=2395771-8840330v.0 R=0.5 X=0
New Reactor.NEUTRO_2395772-8840505v phases=1 bus1=2395772-8840505v.4 bus2=2395772-8840505v.0 R=0.5 X=0
New Reactor.NEUTRO_2395773-8841523 phases=1 bus1=2395773-8841523.4 bus2=2395773-8841523.0 R=0.5 X=0
New Reactor.NEUTRO_2395774-8841269 phases=1 bus1=2395774-8841269.4 bus2=2395774-8841269.0 R=0.5 X=0
New Reactor.NEUTRO_2395787-8840331v phases=1 bus1=2395787-8840331v.4 bus2=2395787-8840331v.0 R=0.5 X=0
New Reactor.NEUTRO_2395789-8840843v phases=1 bus1=2395789-8840843v.4 bus2=2395789-8840843v.0 R=0.5 X=0
New Reactor.NEUTRO_2395790-8840957v phases=1 bus1=2395790-8840957v.4 bus2=2395790-8840957v.0 R=0.5 X=0
New Reactor.NEUTRO_2395791-8840882 phases=1 bus1=2395791-8840882.4 bus2=2395791-8840882.0 R=0.5 X=0
New Reactor.NEUTRO_2395792-8840889 phases=1 bus1=2395792-8840889.4 bus2=2395792-8840889.0 R=0.5 X=0
New Reactor.NEUTRO_2395793-8841331v phases=1 bus1=2395793-8841331v.4 bus2=2395793-8841331v.0 R=0.5 X=0
New Reactor.NEUTRO_2395794-8841525v phases=1 bus1=2395794-8841525v.4 bus2=2395794-8841525v.0 R=0.5 X=0
New Reactor.NEUTRO_2395795-8840332v phases=1 bus1=2395795-8840332v.4 bus2=2395795-8840332v.0 R=0.5 X=0
New Reactor.NEUTRO_2395796-8841163v phases=1 bus1=2395796-8841163v.4 bus2=2395796-8841163v.0 R=0.5 X=0
New Reactor.NEUTRO_2395797-8840062 phases=1 bus1=2395797-8840062.4 bus2=2395797-8840062.0 R=0.5 X=0
New Reactor.NEUTRO_2395802-8840760 phases=1 bus1=2395802-8840760.4 bus2=2395802-8840760.0 R=0.5 X=0
New Reactor.NEUTRO_2395803-8840598 phases=1 bus1=2395803-8840598.4 bus2=2395803-8840598.0 R=0.5 X=0
New Reactor.NEUTRO_2395804-8840878 phases=1 bus1=2395804-8840878.4 bus2=2395804-8840878.0 R=0.5 X=0
New Reactor.NEUTRO_2395805-8841176v phases=1 bus1=2395805-8841176v.4 bus2=2395805-8841176v.0 R=0.5 X=0
New Reactor.NEUTRO_2397756-8862701v phases=1 bus1=2397756-8862701v.4 bus2=2397756-8862701v.0 R=0.5 X=0
New Reactor.NEUTRO_2397757-8862375v phases=1 bus1=2397757-8862375v.4 bus2=2397757-8862375v.0 R=0.5 X=0
New Reactor.NEUTRO_2397758-8862744v phases=1 bus1=2397758-8862744v.4 bus2=2397758-8862744v.0 R=0.5 X=0
New Reactor.NEUTRO_2397759-8861900 phases=1 bus1=2397759-8861900.4 bus2=2397759-8861900.0 R=0.5 X=0
New Reactor.NEUTRO_2397760-8862758v phases=1 bus1=2397760-8862758v.4 bus2=2397760-8862758v.0 R=0.5 X=0
New Reactor.NEUTRO_2397761-8862044 phases=1 bus1=2397761-8862044.4 bus2=2397761-8862044.0 R=0.5 X=0
New Reactor.NEUTRO_2397762-8863639v phases=1 bus1=2397762-8863639v.4 bus2=2397762-8863639v.0 R=0.5 X=0
New Reactor.NEUTRO_2397763-8863143 phases=1 bus1=2397763-8863143.4 bus2=2397763-8863143.0 R=0.5 X=0
New Reactor.NEUTRO_2397764-8862754 phases=1 bus1=2397764-8862754.4 bus2=2397764-8862754.0 R=0.5 X=0
New Reactor.NEUTRO_2397765-8860115v phases=1 bus1=2397765-8860115v.4 bus2=2397765-8860115v.0 R=0.5 X=0
New Reactor.NEUTRO_2397766-8861175 phases=1 bus1=2397766-8861175.4 bus2=2397766-8861175.0 R=0.5 X=0
New Reactor.NEUTRO_2397767-8860032v phases=1 bus1=2397767-8860032v.4 bus2=2397767-8860032v.0 R=0.5 X=0
New Reactor.NEUTRO_2397768-8861176v phases=1 bus1=2397768-8861176v.4 bus2=2397768-8861176v.0 R=0.5 X=0
New Reactor.NEUTRO_2397769-8861776v phases=1 bus1=2397769-8861776v.4 bus2=2397769-8861776v.0 R=0.5 X=0
New Reactor.NEUTRO_2397770-8863696v phases=1 bus1=2397770-8863696v.4 bus2=2397770-8863696v.0 R=0.5 X=0
New Reactor.NEUTRO_2397771-8862750v phases=1 bus1=2397771-8862750v.4 bus2=2397771-8862750v.0 R=0.5 X=0
New Reactor.NEUTRO_2397772-8864249v phases=1 bus1=2397772-8864249v.4 bus2=2397772-8864249v.0 R=0.5 X=0
New Reactor.NEUTRO_2397773-8864244v phases=1 bus1=2397773-8864244v.4 bus2=2397773-8864244v.0 R=0.5 X=0
New Reactor.NEUTRO_2397774-8861187v phases=1 bus1=2397774-8861187v.4 bus2=2397774-8861187v.0 R=0.5 X=0
New Reactor.NEUTRO_2397775-8863547 phases=1 bus1=2397775-8863547.4 bus2=2397775-8863547.0 R=0.5 X=0
New Reactor.NEUTRO_2397776-8861193v phases=1 bus1=2397776-8861193v.4 bus2=2397776-8861193v.0 R=0.5 X=0
New Reactor.NEUTRO_2397777-8860850v phases=1 bus1=2397777-8860850v.4 bus2=2397777-8860850v.0 R=0.5 X=0
New Reactor.NEUTRO_2397779-8861288 phases=1 bus1=2397779-8861288.4 bus2=2397779-8861288.0 R=0.5 X=0
New Reactor.NEUTRO_2397780-8864225v phases=1 bus1=2397780-8864225v.4 bus2=2397780-8864225v.0 R=0.5 X=0
New Reactor.NEUTRO_2397781-8863206v phases=1 bus1=2397781-8863206v.4 bus2=2397781-8863206v.0 R=0.5 X=0
New Reactor.NEUTRO_2397782-8864183v phases=1 bus1=2397782-8864183v.4 bus2=2397782-8864183v.0 R=0.5 X=0
New Reactor.NEUTRO_2397783-8862909v phases=1 bus1=2397783-8862909v.4 bus2=2397783-8862909v.0 R=0.5 X=0
New Reactor.NEUTRO_2397784-8859938v phases=1 bus1=2397784-8859938v.4 bus2=2397784-8859938v.0 R=0.5 X=0
New Reactor.NEUTRO_2397785-8860624v phases=1 bus1=2397785-8860624v.4 bus2=2397785-8860624v.0 R=0.5 X=0
New Reactor.NEUTRO_2397786-8861797v phases=1 bus1=2397786-8861797v.4 bus2=2397786-8861797v.0 R=0.5 X=0
New Reactor.NEUTRO_2397787-8862459v phases=1 bus1=2397787-8862459v.4 bus2=2397787-8862459v.0 R=0.5 X=0
New Reactor.NEUTRO_2397790-8860606v phases=1 bus1=2397790-8860606v.4 bus2=2397790-8860606v.0 R=0.5 X=0
New Reactor.NEUTRO_2397792-8860007 phases=1 bus1=2397792-8860007.4 bus2=2397792-8860007.0 R=0.5 X=0
New Reactor.NEUTRO_2397793-8863320v phases=1 bus1=2397793-8863320v.4 bus2=2397793-8863320v.0 R=0.5 X=0
New Reactor.NEUTRO_2397794-8860601v phases=1 bus1=2397794-8860601v.4 bus2=2397794-8860601v.0 R=0.5 X=0
New Reactor.NEUTRO_2397795-8864236 phases=1 bus1=2397795-8864236.4 bus2=2397795-8864236.0 R=0.5 X=0
New Reactor.NEUTRO_2397796-8863313v phases=1 bus1=2397796-8863313v.4 bus2=2397796-8863313v.0 R=0.5 X=0
New Reactor.NEUTRO_2397797-8862190v phases=1 bus1=2397797-8862190v.4 bus2=2397797-8862190v.0 R=0.5 X=0
New Reactor.NEUTRO_2397800-8862188v phases=1 bus1=2397800-8862188v.4 bus2=2397800-8862188v.0 R=0.5 X=0
New Reactor.NEUTRO_2397801-8864173v phases=1 bus1=2397801-8864173v.4 bus2=2397801-8864173v.0 R=0.5 X=0
New Reactor.NEUTRO_2397802-8864192v phases=1 bus1=2397802-8864192v.4 bus2=2397802-8864192v.0 R=0.5 X=0
New Reactor.NEUTRO_2397803-8859497v phases=1 bus1=2397803-8859497v.4 bus2=2397803-8859497v.0 R=0.5 X=0
New Reactor.NEUTRO_2397804-8862751v phases=1 bus1=2397804-8862751v.4 bus2=2397804-8862751v.0 R=0.5 X=0
New Reactor.NEUTRO_2397805-8861661v phases=1 bus1=2397805-8861661v.4 bus2=2397805-8861661v.0 R=0.5 X=0
New Reactor.NEUTRO_2397806-8864226v phases=1 bus1=2397806-8864226v.4 bus2=2397806-8864226v.0 R=0.5 X=0
New Reactor.NEUTRO_2397807-8860621 phases=1 bus1=2397807-8860621.4 bus2=2397807-8860621.0 R=0.5 X=0
New Reactor.NEUTRO_2397808-8862683v phases=1 bus1=2397808-8862683v.4 bus2=2397808-8862683v.0 R=0.5 X=0
New Reactor.NEUTRO_2397809-8860476v phases=1 bus1=2397809-8860476v.4 bus2=2397809-8860476v.0 R=0.5 X=0
New Reactor.NEUTRO_2397810-8860596v phases=1 bus1=2397810-8860596v.4 bus2=2397810-8860596v.0 R=0.5 X=0
New Reactor.NEUTRO_2397811-8861293 phases=1 bus1=2397811-8861293.4 bus2=2397811-8861293.0 R=0.5 X=0
New Reactor.NEUTRO_2397812-8861382 phases=1 bus1=2397812-8861382.4 bus2=2397812-8861382.0 R=0.5 X=0
New Reactor.NEUTRO_2397814-8861768v phases=1 bus1=2397814-8861768v.4 bus2=2397814-8861768v.0 R=0.5 X=0
New Reactor.NEUTRO_2397815-8860913v phases=1 bus1=2397815-8860913v.4 bus2=2397815-8860913v.0 R=0.5 X=0
New Reactor.NEUTRO_2397816-8859928v phases=1 bus1=2397816-8859928v.4 bus2=2397816-8859928v.0 R=0.5 X=0
New Reactor.NEUTRO_2397817-8862745v phases=1 bus1=2397817-8862745v.4 bus2=2397817-8862745v.0 R=0.5 X=0
New Reactor.NEUTRO_2397818-8864247v phases=1 bus1=2397818-8864247v.4 bus2=2397818-8864247v.0 R=0.5 X=0
New Reactor.NEUTRO_2397819-8859439 phases=1 bus1=2397819-8859439.4 bus2=2397819-8859439.0 R=0.5 X=0
New Reactor.NEUTRO_2397820-8864023 phases=1 bus1=2397820-8864023.4 bus2=2397820-8864023.0 R=0.5 X=0
New Reactor.NEUTRO_2397821-8861189 phases=1 bus1=2397821-8861189.4 bus2=2397821-8861189.0 R=0.5 X=0
New Reactor.NEUTRO_2397822-8860627v phases=1 bus1=2397822-8860627v.4 bus2=2397822-8860627v.0 R=0.5 X=0
New Reactor.NEUTRO_2397823-8859944v phases=1 bus1=2397823-8859944v.4 bus2=2397823-8859944v.0 R=0.5 X=0
New Reactor.NEUTRO_2397824-8861201v phases=1 bus1=2397824-8861201v.4 bus2=2397824-8861201v.0 R=0.5 X=0
New Reactor.NEUTRO_2397825-8860906v phases=1 bus1=2397825-8860906v.4 bus2=2397825-8860906v.0 R=0.5 X=0
New Reactor.NEUTRO_2397826-8863333v phases=1 bus1=2397826-8863333v.4 bus2=2397826-8863333v.0 R=0.5 X=0
New Reactor.NEUTRO_2397827-8860611v phases=1 bus1=2397827-8860611v.4 bus2=2397827-8860611v.0 R=0.5 X=0
New Reactor.NEUTRO_2397828-8863194v phases=1 bus1=2397828-8863194v.4 bus2=2397828-8863194v.0 R=0.5 X=0
New Reactor.NEUTRO_2397829-8864180v phases=1 bus1=2397829-8864180v.4 bus2=2397829-8864180v.0 R=0.5 X=0
New Reactor.NEUTRO_2397830-8861748v phases=1 bus1=2397830-8861748v.4 bus2=2397830-8861748v.0 R=0.5 X=0
New Reactor.NEUTRO_2397831-8860924 phases=1 bus1=2397831-8860924.4 bus2=2397831-8860924.0 R=0.5 X=0
New Reactor.NEUTRO_2397832-12357419 phases=1 bus1=2397832-12357419.4 bus2=2397832-12357419.0 R=0.5 X=0
New Reactor.NEUTRO_2397833-8864175v phases=1 bus1=2397833-8864175v.4 bus2=2397833-8864175v.0 R=0.5 X=0
New Reactor.NEUTRO_2397834-8863479v phases=1 bus1=2397834-8863479v.4 bus2=2397834-8863479v.0 R=0.5 X=0
New Reactor.NEUTRO_2397835-8863317v phases=1 bus1=2397835-8863317v.4 bus2=2397835-8863317v.0 R=0.5 X=0
New Reactor.NEUTRO_2397836-8863322v phases=1 bus1=2397836-8863322v.4 bus2=2397836-8863322v.0 R=0.5 X=0
New Reactor.NEUTRO_2397837-8862965 phases=1 bus1=2397837-8862965.4 bus2=2397837-8862965.0 R=0.5 X=0
New Reactor.NEUTRO_2397839-8862901v phases=1 bus1=2397839-8862901v.4 bus2=2397839-8862901v.0 R=0.5 X=0
New Reactor.NEUTRO_2397840-8860602v phases=1 bus1=2397840-8860602v.4 bus2=2397840-8860602v.0 R=0.5 X=0
New Reactor.NEUTRO_2397841-8863725 phases=1 bus1=2397841-8863725.4 bus2=2397841-8863725.0 R=0.5 X=0
New Reactor.NEUTRO_2397843-8860612v phases=1 bus1=2397843-8860612v.4 bus2=2397843-8860612v.0 R=0.5 X=0
New Reactor.NEUTRO_2397845-8864242v phases=1 bus1=2397845-8864242v.4 bus2=2397845-8864242v.0 R=0.5 X=0
New Reactor.NEUTRO_2397846-8863318v phases=1 bus1=2397846-8863318v.4 bus2=2397846-8863318v.0 R=0.5 X=0
New Reactor.NEUTRO_2397847-8861185v phases=1 bus1=2397847-8861185v.4 bus2=2397847-8861185v.0 R=0.5 X=0
New Reactor.NEUTRO_2397848-8861186v phases=1 bus1=2397848-8861186v.4 bus2=2397848-8861186v.0 R=0.5 X=0
New Reactor.NEUTRO_2397850-8860629v phases=1 bus1=2397850-8860629v.4 bus2=2397850-8860629v.0 R=0.5 X=0
New Reactor.NEUTRO_2397851-8862017v phases=1 bus1=2397851-8862017v.4 bus2=2397851-8862017v.0 R=0.5 X=0
New Reactor.NEUTRO_2397852-8859902v phases=1 bus1=2397852-8859902v.4 bus2=2397852-8859902v.0 R=0.5 X=0
New Reactor.NEUTRO_2397853-8861895v phases=1 bus1=2397853-8861895v.4 bus2=2397853-8861895v.0 R=0.5 X=0
New Reactor.NEUTRO_2397854-8861145v phases=1 bus1=2397854-8861145v.4 bus2=2397854-8861145v.0 R=0.5 X=0
New Reactor.NEUTRO_2397855-8860338v phases=1 bus1=2397855-8860338v.4 bus2=2397855-8860338v.0 R=0.5 X=0
New Reactor.NEUTRO_2397856-8861230v phases=1 bus1=2397856-8861230v.4 bus2=2397856-8861230v.0 R=0.5 X=0
New Reactor.NEUTRO_2397857-8860623v phases=1 bus1=2397857-8860623v.4 bus2=2397857-8860623v.0 R=0.5 X=0
New Reactor.NEUTRO_2397858-8861764v phases=1 bus1=2397858-8861764v.4 bus2=2397858-8861764v.0 R=0.5 X=0
New Reactor.NEUTRO_2397861-8861795v phases=1 bus1=2397861-8861795v.4 bus2=2397861-8861795v.0 R=0.5 X=0
New Reactor.NEUTRO_2397885-8863653v phases=1 bus1=2397885-8863653v.4 bus2=2397885-8863653v.0 R=0.5 X=0
New Reactor.NEUTRO_2397930-8861194v phases=1 bus1=2397930-8861194v.4 bus2=2397930-8861194v.0 R=0.5 X=0
New Reactor.NEUTRO_2397931-8862961v phases=1 bus1=2397931-8862961v.4 bus2=2397931-8862961v.0 R=0.5 X=0
New Reactor.NEUTRO_2397932-8864181v phases=1 bus1=2397932-8864181v.4 bus2=2397932-8864181v.0 R=0.5 X=0
New Reactor.NEUTRO_2397933-8862899v phases=1 bus1=2397933-8862899v.4 bus2=2397933-8862899v.0 R=0.5 X=0
New Reactor.NEUTRO_2397935-8861771v phases=1 bus1=2397935-8861771v.4 bus2=2397935-8861771v.0 R=0.5 X=0
New Reactor.NEUTRO_2397936-8860160 phases=1 bus1=2397936-8860160.4 bus2=2397936-8860160.0 R=0.5 X=0
New Reactor.NEUTRO_2397937-8860018v phases=1 bus1=2397937-8860018v.4 bus2=2397937-8860018v.0 R=0.5 X=0
New Reactor.NEUTRO_2397938-8864234v phases=1 bus1=2397938-8864234v.4 bus2=2397938-8864234v.0 R=0.5 X=0
New Reactor.NEUTRO_2397939-8860226v phases=1 bus1=2397939-8860226v.4 bus2=2397939-8860226v.0 R=0.5 X=0
New Reactor.NEUTRO_2397940-8863321v phases=1 bus1=2397940-8863321v.4 bus2=2397940-8863321v.0 R=0.5 X=0
New Reactor.NEUTRO_2397941-8860722v phases=1 bus1=2397941-8860722v.4 bus2=2397941-8860722v.0 R=0.5 X=0
New Reactor.NEUTRO_2397942-8861364v phases=1 bus1=2397942-8861364v.4 bus2=2397942-8861364v.0 R=0.5 X=0
New Reactor.NEUTRO_2397943-8862747 phases=1 bus1=2397943-8862747.4 bus2=2397943-8862747.0 R=0.5 X=0
...
